src/examples/case14_twoarea/two_area_02pulim_1_35/results/res_branch_2.csv
branch,from_bus,to_bus,X,B,G,Bfr,Bto,p_from,p_to,q_from,q_to,p_loss,q_loss,s_from,s_to,rate_a,ang_deg,angmin,angmax
7,4,5,0.07018333333333335,-13.750861129582134,2.615635185180549,0.0,0.0,-0.0893013964219737,0.08965005701522448,0.12446966283999839,-0.1226366918560095,0.00034866059325078247,0.0018329709839888797,0.153190849499627,0.1519107991955109,0.2,-0.5098642459862708,-60.0001403060998,60.0001403060998
4,2,4,0.2938666666666667,-3.274849999726149,0.6475778135801491,0.028333333333333335,0.028333333333333335,0.13656230510095205,-0.13523674505467037,0.026949353757977232,-0.07244976967729373,0.0013255600462816763,-0.0455004159193165,0.13919601590009,0.15342081455680914,0.2,2.303172271797424,-60.0001403060998,60.0001403060998
2,1,5,0.37173333333333336,-2.634446441553089,0.3829065851070123,0.041,0.041,0.13853344016328076,-0.1371094021977281,0.037771730494308924,-0.10323173153398725,0.0014240379655526547,-0.06546000103967833,0.1435904511727991,0.17162685852314488,0.2,2.9592487200267446,-60.0001403060998,60.0001403060998
3,2,3,0.32995,-2.9705137433791546,0.423047252012082,0.0365,0.0365,0.1948410275629132,-0.19289585853479774,-0.0011135564453374426,-0.05283178735840099,0.001945169028115451,-0.05394534380373843,0.1948442096386979,0.20000002498839844,0.2,3.8842050054731234,-60.0001403060998,60.0001403060998
5,2,5,0.28980000000000006,-3.32235273589815,0.6528916090731525,0.028833333333333336,0.028833333333333336,0.1152661329806657,-0.11403160440545917,0.05749330913863626,-0.10390514719021185,0.00123452857520652,-0.04641183805157559,0.1288090136909188,0.15427082166081416,0.2,1.7933080258111538,-60.0001403060998,60.0001403060998
6,3,4,0.28505,-3.324436966625986,0.7815138436541214,0.010666666666666668,0.010666666666666668,-0.07880413147040038,0.07936188964980098,0.027047810723868252,-0.0439474655382165,0.000557758179400597,-0.016899654814348245,0.08331671622044612,0.09071763475763638,0.2,-1.5810327336756997,-60.0001403060998,60.0001403060998
1,1,2,0.09861666666666669,-9.763222778777191,1.918653954227162,0.044000000000000004,0.044000000000000004,0.1964008798824884,-0.19561525208716685,-0.03777174048698513,-0.04164952761396531,0.0007856277953215418,-0.07942126810095043,0.2000000249950779,0.20000002499897918,0.2,1.1659406942155912,-60.0001403060998,60.0001403060998
